[General]
network = RadioSch
sim-time-limit = 100h
cpu-time-limit = 300s

[Config Sched1]
description = "Simulation 1" 
**.usersCount = 3
**.user[0].weight = 1
**.user[0].generator.packetLength = 1
**.user[1].weight = 2
**.user[1].generator.packetLength = 1
**.user[2].weight = 3
**.user[2].generator.packetLength = 1

[Config Sched2]
description = "Simulation 2"
**.usersCount = 3
**.user[0].weight = 5
**.user[0].generator.packetLength = 1
**.user[1].weight = 10
**.user[1].generator.packetLength = 1
**.user[2].weight = 1
**.user[2].generator.packetLength = 1

[Config Sched3]
description = "Simulation 3"
**.usersCount = 3
**.user[0].weight = 2
**.user[0].generator.packetLength = 1
**.user[1].weight = 2
**.user[1].generator.packetLength = 2
**.user[2].weight = 2
**.user[2].generator.packetLength = 3
